data_sapa-output 
 
_cell_length_a 8.034587860107422 
_cell_length_b 8.034587860107422 
_cell_length_c 8.034587860107422 
_cell_angle_alpha 90.00000 
_cell_angle_beta 90.00000 
_cell_angle_gamma 90.00000 
_cell_volume 516.79570 
_symmetry_space_group_name_H-M "P 1" 
_symmetry_Int_Tables_number 1 
_space_group.reference_setting '001:P 1' 
_space_group.transform_Pp_abc a,b,c;0,0,0 
 
loop_ 
_space_group_symop_id 
_space_group_symop_operation_xyz 
1 x,y,z 
 
loop_ 
_atom_site_label 
_atom_site_type_symbol 
_atom_site_symmetry_multiplicity 
_atom_site_Wyckoff_label  
_atom_site_fract_x 
_atom_site_fract_y  
_atom_site_fract_z 
_atom_site_occupancy  
Sc1_1 Sc 1 a 0.24670683592557907 0.25010259996633977 0.7510023330687545 1.00000 
Sc1_2 Sc 1 a 0.24888108996674418 0.2520436419872567 0.2510023330687545 1.00000 
Sc1_3 Sc 1 a 0.2511189100332558 0.7501025999663398 0.7529030629084446 1.00000 
Sc1_4 Sc 1 a 0.25329316407442093 0.7520436419872567 0.25290306290844455 1.00000 
Sc1_5 Sc 1 a 0.7467068359255791 0.2479563580127433 0.7470969370915554 1.00000 
Sc1_6 Sc 1 a 0.7488810899667442 0.24989740003366023 0.24709693709155545 1.00000 
Sc1_7 Sc 1 a 0.7511189100332558 0.7479563580127433 0.7489976669312455 1.00000 
Sc1_8 Sc 1 a 0.7532931640744209 0.7498974000336602 0.24899766693124548 1.00000 
F1_1 F 1 a 0.2539332811720669 0.23373984917998314 0.0009825462475419044 1.00000 
F1_2 F 1 a 0.2539332811720669 0.23373984917998314 0.5009825462475419 1.00000 
F1_3 F 1 a 0.24606671882793307 0.7337398491799831 0.01664579939097166 1.00000 
F1_4 F 1 a 0.24606671882793307 0.7337398491799831 0.5166457993909717 1.00000 
F1_5 F 1 a 0.7539332811720669 0.26626015082001686 0.9833542006090283 1.00000 
F1_6 F 1 a 0.7539332811720669 0.26626015082001686 0.48335420060902834 1.00000 
F1_7 F 1 a 0.7460667188279331 0.7662601508200169 0.9990174537524581 1.00000 
F1_8 F 1 a 0.7460667188279331 0.7662601508200169 0.4990174537524581 1.00000 
F1_9 F 1 a 0.9906200217083097 0.25841511879116297 0.7155992202460766 1.00000 
F1_10 F 1 a 0.9985818481072783 0.24158488120883703 0.21559922024607658 1.00000 
F1_11 F 1 a 0.001418151892721653 0.758415118791163 0.7844007797539234 1.00000 
F1_12 F 1 a 0.00937997829169035 0.741584881208837 0.2844007797539234 1.00000 
F1_13 F 1 a 0.49062002170830965 0.25841511879116297 0.7155992202460766 1.00000 
F1_14 F 1 a 0.49858184810727835 0.24158488120883703 0.21559922024607658 1.00000 
F1_15 F 1 a 0.5014181518927217 0.758415118791163 0.7844007797539234 1.00000 
F1_16 F 1 a 0.5093799782916903 0.741584881208837 0.2844007797539234 1.00000 
F1_17 F 1 a 0.2461787429638207 0.004112107097171247 0.7416853895410895 1.00000 
F1_18 F 1 a 0.2538212570361793 0.001014887006022036 0.24168538954108953 1.00000 
F1_19 F 1 a 0.2461787429638207 0.5041121070971712 0.7416853895410895 1.00000 
F1_20 F 1 a 0.2538212570361793 0.501014887006022 0.24168538954108953 1.00000 
F1_21 F 1 a 0.7461787429638207 0.998985112993978 0.7583146104589105 1.00000 
F1_22 F 1 a 0.7538212570361793 0.9958878929028288 0.25831461045891047 1.00000 
F1_23 F 1 a 0.7461787429638207 0.49898511299397796 0.7583146104589105 1.00000 
F1_24 F 1 a 0.7538212570361793 0.49588789290282875 0.25831461045891047 1.00000 
